Version 4.1
SHEET 1 880 680
WIRE 48 144 -16 144
WIRE 208 144 144 144
WIRE 240 144 208 144
WIRE 368 144 320 144
WIRE 480 144 368 144
WIRE 208 224 208 208
WIRE 208 224 -16 224
WIRE 368 224 368 208
WIRE 368 224 208 224
WIRE 480 224 368 224
SYMBOL voltage -16 128 R0
WINDOW 123 0 0 Left 0
WINDOW 39 0 0 Left 0
SYMATTR InstName V1
SYMATTR Value 24
SYMBOL res 464 128 R0
SYMATTR InstName R1
SYMBOL cap 352 144 R0
SYMATTR InstName C1
SYMBOL ind 224 160 R270
WINDOW 0 32 56 VTop 2
WINDOW 3 5 56 VBottom 2
SYMATTR InstName L1
SYMBOL diode 224 208 R180
WINDOW 0 24 64 Left 2
WINDOW 3 24 0 Left 2
SYMATTR InstName D1
SYMBOL nmos 48 192 R270
SYMATTR InstName M1
