Version 4.1
SHEET 1 880 680
WIRE 32 160 -32 160
WIRE 176 160 128 160
WIRE 224 160 176 160
WIRE 352 160 304 160
WIRE 464 160 352 160
WIRE -32 272 -32 240
WIRE 352 272 352 160
WIRE 464 272 464 160
WIRE -32 384 -32 352
WIRE 48 384 -32 384
WIRE 176 384 48 384
WIRE 352 384 352 336
WIRE 352 384 176 384
WIRE 464 384 464 352
WIRE 464 384 352 384
WIRE 112 416 112 208
FLAG 48 384 0
FLAG 112 496 0
SYMBOL voltage -32 256 R0
WINDOW 123 0 0 Left 0
WINDOW 39 0 0 Left 0
SYMATTR InstName V1
SYMATTR Value 24
SYMBOL res 448 256 R0
SYMATTR InstName R1
SYMATTR Value 5
SYMBOL cap 336 272 R0
SYMATTR InstName C1
SYMATTR Value 47µF
SYMBOL ind 208 176 R270
WINDOW 0 32 56 VTop 2
WINDOW 3 5 56 VBottom 2
SYMATTR InstName L1
SYMATTR Value 33µH
SYMBOL diode 192 384 R180
WINDOW 0 24 64 Left 2
WINDOW 3 24 0 Left 2
SYMATTR InstName D1
SYMBOL res 160 224 R0
SYMATTR InstName R2
SYMATTR Value .2
SYMBOL voltage 176 256 R180
WINDOW 3 24 -12 Left 2
WINDOW 123 0 0 Left 0
WINDOW 39 0 0 Left 0
SYMATTR Value .7
SYMATTR InstName V2
SYMBOL nmos 32 208 R270
SYMATTR InstName M1
SYMBOL res -48 144 R0
SYMATTR InstName R3
SYMATTR Value .1
SYMBOL voltage 112 400 R0
WINDOW 123 0 0 Left 0
WINDOW 39 0 0 Left 0
SYMATTR InstName V3
SYMATTR Value PULSE(0 5 0 0 0 {D * Ts} {Ts})
TEXT -304 208 Left 2 !.param Ts=5u
