Version 4.1
SHEET 1 924 680
WIRE -112 -112 -160 -112
WIRE 16 -112 -32 -112
WIRE 128 -112 80 -112
WIRE 176 -112 128 -112
WIRE -160 -64 -160 -112
WIRE -160 48 -160 16
WIRE -48 48 -160 48
WIRE -160 80 -160 48
WIRE -160 224 -160 160
WIRE -112 224 -160 224
WIRE 16 224 -32 224
WIRE 80 224 80 -112
FLAG 176 -32 0
FLAG -48 48 0
FLAG 128 -112 vd
SYMBOL voltage -160 -80 R0
WINDOW 123 0 0 Left 0
WINDOW 39 0 0 Left 0
SYMATTR InstName V1
SYMATTR Value SINE(0 170 {f})
SYMBOL voltage -160 64 R0
WINDOW 123 0 0 Left 0
WINDOW 39 0 0 Left 0
SYMATTR InstName V2
SYMATTR Value SINE(0 170 {f})
SYMBOL ind -128 -96 R270
WINDOW 0 32 56 VTop 2
WINDOW 3 5 56 VBottom 2
SYMATTR InstName L1
SYMATTR Value {Lc}
SYMBOL ind -128 240 R270
WINDOW 0 32 56 VTop 2
WINDOW 3 5 56 VBottom 2
SYMATTR InstName L2
SYMATTR Value {Lc}
SYMBOL diode 16 -96 R270
WINDOW 0 32 32 VTop 2
WINDOW 3 0 32 VBottom 2
SYMATTR InstName D1
SYMBOL diode 16 240 R270
WINDOW 0 32 32 VTop 2
WINDOW 3 0 32 VBottom 2
SYMATTR InstName D2
SYMBOL current 176 -112 R0
WINDOW 123 0 0 Left 0
WINDOW 39 0 0 Left 0
SYMATTR InstName I1
SYMATTR Value {Iload}
TEXT -192 280 Left 2 !.step param Iload 0 10 1
TEXT 184 120 Left 2 !.meas TRAN avg_vd AVG V(vd)
TEXT -480 96 Left 2 !.ic I(L2)=0
TEXT 176 232 Left 2 !.tran {1/f}
TEXT 184 80 Left 2 !.param Lc=90m
TEXT 184 160 Left 2 !.param f=60
