Version 4.1
SHEET 1 880 680
WIRE 208 128 64 128
WIRE 160 208 64 208
WIRE 208 208 208 192
WIRE 208 208 160 208
FLAG 160 208 0
SYMBOL diode 192 128 R0
SYMATTR InstName D1
SYMATTR Value MyDiode
SYMBOL voltage 64 112 R0
WINDOW 123 0 0 Left 0
WINDOW 39 0 0 Left 0
SYMATTR InstName V1
SYMATTR Value 5
TEXT 296 96 Left 2 !.temp 25
TEXT 296 128 Left 2 !.model MyDiode D(Ron=.1 Roff=1Meg Vfwd=.4)
TEXT 296 160 Left 2 !.dc V1 0 1 .1
