Version 4.1
SHEET 1 880 680
SYMBOL irlml0040trpbf 208 160 R0
SYMATTR InstName U1
