Version 4.1
SHEET 1 880 680
WIRE 320 96 256 96
WIRE 256 144 256 96
WIRE 256 144 240 144
WIRE 176 160 80 160
WIRE 320 176 240 176
WIRE 336 176 320 176
FLAG 320 176 0
FLAG 80 240 0
SYMBOL irlml0040trpbf 208 160 R0
SYMATTR InstName U1
SYMBOL voltage 320 80 R0
SYMATTR InstName V1
SYMBOL voltage 80 144 R0
WINDOW 123 0 0 Left 0
WINDOW 39 0 0 Left 0
SYMATTR InstName V2
SYMATTR Value 5
