Version 4.1
SHEET 1 1300 680
WIRE 192 16 80 16
WIRE 384 16 192 16
WIRE 80 96 80 80
WIRE 80 96 -48 96
WIRE 384 96 384 16
WIRE 192 176 192 80
WIRE 192 176 -48 176
WIRE 80 192 80 96
WIRE 192 192 192 176
WIRE 192 256 80 256
WIRE 240 256 192 256
WIRE 384 256 384 176
WIRE 384 256 240 256
FLAG 240 256 0
SYMBOL voltage -48 80 R0
WINDOW 0 -54 21 Left 2
WINDOW 3 -180 112 Left 2
WINDOW 123 0 0 Left 0
WINDOW 39 0 0 Left 0
SYMATTR InstName V1
SYMATTR Value SINE(0 24 60)
SYMBOL res 368 80 R0
SYMATTR InstName R1
SYMATTR Value 200
SYMBOL diode 208 80 R180
WINDOW 0 24 64 Left 2
WINDOW 3 24 0 Left 2
SYMATTR InstName D1
SYMATTR Value STPS
SYMBOL diode 96 80 R180
WINDOW 0 24 64 Left 2
WINDOW 3 24 0 Left 2
SYMATTR InstName D2
SYMATTR Value STPS
SYMBOL diode 96 256 R180
WINDOW 0 24 64 Left 2
WINDOW 3 24 0 Left 2
SYMATTR InstName D3
SYMATTR Value STPS
SYMBOL diode 208 256 R180
WINDOW 0 24 64 Left 2
WINDOW 3 24 0 Left 2
SYMATTR InstName D4
SYMATTR Value STPS
TEXT -192 -48 Left 2 !.model STPS D(Ron=.054 Roff=1Meg Vfwd=.35)
TEXT -192 -8 Left 2 !.tran 30m
